New "Line.line_1" R1=0.058 X1=0.1206 R0=0.1784 X0=0.4047 C1=3.4 C0=1.6 Bus1=bus_1.1 Bus2=bus_2.2 Phases=3
New "Line.line_2" R1=0.058 X1=0.1206 R0=0.1784 X0=0.4047 C1=3.4 C0=1.6 Bus1=bus_1.1 Bus2=bus_2.1 Length=-10
