New "Load.load_1" Bus1=bus_2.1.2.3 Phases=1
